sistemas/EXIC/NE224-C2/EXIC_NE224-C2JPMOD875_9.LIS
CEPEL - CENTRO DE PESQUISAS DE ENERGIA ELETRICA - PROGRAMA DE ANALISE DE REDES - V11.07.02                                 PAG.  62

 **EPE DECENAL 2032** PESADA ** ANO 2026 ** NORTE SECO                           
 RELATORIO DE EXECUCAO DO FLUXO DE POTENCIA CONTINUADO

 Opcoes Ativadas: CREM CTAP STEP BPSI NEWT RCVG RMON FILE CONT CELO ATCR INDC STPO CTAF CTAF

 X----X----------------X--------------------------X-------------X---------X
                            AUMENTO DA CARGA                               
  NUM.   CONVERGENCIA        ATIVA E REATIVA (%)   CARGA DA AREA PASSO MAX 
          STATUS    P/Q  MAXIMO    AREA    SISTEMA   MW / Mvar    P/Q (%)  
 X----X------------X---X--------X--------X--------X-------------X---------X

     0 Convergente    1    0.000    0.000    0.000 15771.90 MW      1.0000
                      1    0.000    0.000    0.000  -594.67 Mvar    0.6000
     1 Convergente    3    1.000    1.000    1.000 15929.62 MW      1.0000
                      3    0.600    0.600    0.600  -598.24 Mvar    0.6000
     2 Convergente    3    2.000    2.000    2.000 16087.34 MW      1.0000
                      3    1.200    1.200    1.200  -601.81 Mvar    0.6000
     3 Convergente    3    3.000    3.000    3.000 16245.05 MW      1.0000
                      3    1.800    1.800    1.800  -605.38 Mvar    0.6000
     4 Convergente    3    4.000    4.000    4.000 16402.77 MW      1.0000
                      3    2.400    2.400    2.400  -608.95 Mvar    0.6000
     5 Convergente    3    5.000    5.000    5.000 16560.49 MW      1.0000
                      3    3.000    3.000    3.000  -612.51 Mvar    0.6000
     6 Convergente    3    6.000    6.000    6.000 16718.21 MW      1.0000
                      3    3.600    3.600    3.600  -616.08 Mvar    0.6000
     7 Convergente    3    7.000    7.000    7.000 16875.93 MW      1.0000
                      3    4.200    4.200    4.200  -619.65 Mvar    0.6000
     8 Convergente    3    8.000    8.000    8.000 17033.65 MW      1.0000
                      3    4.800    4.800    4.800  -623.22 Mvar    0.6000
     9 Convergente    3    9.000    9.000    9.000 17191.37 MW      1.0000
                      3    5.400    5.400    5.400  -626.79 Mvar    0.6000
    10 Convergente    3   10.000   10.000   10.000 17349.09 MW      1.0000
                      3    6.000    6.000    6.000  -630.35 Mvar    0.6000
    11 Convergente    3   11.000   11.000   11.000 17506.81 MW      1.0000
                      3    6.600    6.600    6.600  -633.92 Mvar    0.6000
    12 Convergente    3   12.000   12.000   12.000 17664.53 MW      1.0000
                      3    7.200    7.200    7.200  -637.49 Mvar    0.6000
    13 Convergente    3   13.000   13.000   13.000 17822.24 MW      1.0000
                      3    7.800    7.800    7.800  -641.06 Mvar    0.6000
    14 Convergente    3   14.000   14.000   14.000 17979.96 MW      1.0000
                      3    8.400    8.400    8.400  -644.63 Mvar    0.6000
    15 Convergente    3   15.000   15.000   15.000 18137.68 MW      1.0000
                      3    9.000    9.000    9.000  -648.19 Mvar    0.6000
    16 Convergente    3   16.000   16.000   16.000 18295.40 MW      1.0000
                      3    9.600    9.600    9.600  -651.76 Mvar    0.6000
    17 Convergente    3   17.000   17.000   17.000 18453.12 MW      1.0000
                      3   10.200   10.200   10.200  -655.33 Mvar    0.6000
    18 Convergente    2   18.000   18.000   18.000 18610.84 MW      1.0000
                      2   10.800   10.800   10.800  -658.90 Mvar    0.6000
    19 Convergente    2   19.000   19.000   19.000 18768.56 MW      1.0000
                      2   11.400   11.400   11.400  -662.47 Mvar    0.6000
    20 Convergente    2   20.000   20.000   20.000 18926.28 MW      1.0000
                      2   12.000   12.000   12.000  -666.03 Mvar    0.6000
    21 Convergente    2   21.000   21.000   21.000 19084.00 MW      1.0000
                      2   12.600   12.600   12.600  -669.60 Mvar    0.6000
CEPEL - CENTRO DE PESQUISAS DE ENERGIA ELETRICA - PROGRAMA DE ANALISE DE REDES - V11.07.02                                 PAG.  63

    22.0000                                                                      
 RELATORIO DE EXECUCAO DO FLUXO DE POTENCIA CONTINUADO

 Opcoes Ativadas: CREM CTAP STEP BPSI NEWT RCVG RMON FILE CONT CELO ATCR INDC STPO CTAF CTAF

 X----X----------------X--------------------------X-------------X---------X
                            AUMENTO DA CARGA                               
  NUM.   CONVERGENCIA        ATIVA E REATIVA (%)   CARGA DA AREA PASSO MAX 
          STATUS    P/Q  MAXIMO    AREA    SISTEMA   MW / Mvar    P/Q (%)  
 X----X------------X---X--------X--------X--------X-------------X---------X

    22 Convergente    2   22.000   22.000   22.000 19241.72 MW      1.0000
                      2   13.200   13.200   13.200  -673.17 Mvar    0.6000
    23 Convergente    2   23.000   23.000   23.000 19399.43 MW      1.0000
                      2   13.800   13.800   13.800  -676.74 Mvar    0.6000
    24 Convergente    2   24.000   24.000   24.000 19557.15 MW      1.0000
                      2   14.400   14.400   14.400  -680.31 Mvar    0.6000
    25 Convergente    2   25.000   25.000   25.000 19714.87 MW      1.0000
                      2   15.000   15.000   15.000  -683.88 Mvar    0.6000
    26 Convergente    2   26.000   26.000   26.000 19872.59 MW      1.0000
                      2   15.600   15.600   15.600  -687.44 Mvar    0.6000
    27 Convergente    2   27.000   27.000   27.000 20030.31 MW      1.0000
                      2   16.200   16.200   16.200  -691.01 Mvar    0.6000
    28 Convergente    2   28.000   28.000   28.000 20188.03 MW      1.0000
                      2   16.800   16.800   16.800  -694.58 Mvar    0.6000
    29 Convergente    2   29.000   29.000   29.000 20345.75 MW      1.0000
                      2   17.400   17.400   17.400  -698.15 Mvar    0.6000
    30 Convergente    2   30.000   30.000   30.000 20503.47 MW      1.0000
                      2   18.000   18.000   18.000  -701.72 Mvar    0.6000
 
 Numero maximo de iteracoes atingido
CEPEL - CENTRO DE PESQUISAS DE ENERGIA ELETRICA - PROGRAMA DE ANALISE DE REDES - V11.07.02                                 PAG.  64

 **EPE DECENAL 2032** PESADA ** ANO 2026 ** NORTE SECO                           
 RELATORIO DE TOTAIS DE AREA

 X----X--------X--------X--------X--------X--------X--------X--------X--------X
  AREA  GERACAO  INJ EQV   CARGA   ELO CC    SHUNT   EXPORT   IMPORT   PERDAS
  NUM.    MW/      MW/      MW/      MW/     Mvar/     MW/      MW/      MW/
         Mvar     Mvar     Mvar     Mvar     EQUIV    Mvar     Mvar     Mvar
 X----X--------X--------X--------X--------X--------X--------X--------X--------X

   200  21293.1      0.0  20503.5      0.0   2747.9      0.0      0.0    789.7
        -4016.8      0.0   -701.7      0.0      0.0      0.0      0.0   -567.2

 TOTAL  21293.1      0.0  20503.5      0.0   2747.9      0.0      0.0    789.7
        -4016.8      0.0   -701.7      0.0      0.0      0.0      0.0   -567.2
